Circuit: * C:\Users\atmat\Desktop\Active_Brake\Simulations\Buck_Boost_Sw.asc

Limiting rise time of source v2 to 1e-006
Limiting fall time of source v2 to 1e-006
Direct Newton iteration for .op point succeeded.

Date: Wed Jan 12 23:01:56 2022
Total elapsed time: 0.084 seconds.

tnom = 27
temp = 27
method = modified trap
totiter = 6608
traniter = 6558
tranpoints = 2690
accept = 2188
rejected = 502
matrix size = 27
fillins = 1
solver = Normal
Matrix Compiler1: 800 bytes object code size  0.3/0.1/[0.1]
Matrix Compiler2: 1.64 KB object code size  0.1/0.3/[0.1]

