Circuit: * C:\Users\atmat\Desktop\Active_Brake\Simulations\Draft2.asc

Limiting rise time of source v2 to 1e-006
Limiting fall time of source v2 to 1e-006
Instance "m:u4:1": Width narrower than recommended for a level 3 MOSFET.
Instance "m:u3:1": Width narrower than recommended for a level 3 MOSFET.
Instance "m:u2:1": Width narrower than recommended for a level 3 MOSFET.
Instance "m:u1:1": Width narrower than recommended for a level 3 MOSFET.
Direct Newton iteration for .op point succeeded.

Date: Wed Jan 12 22:06:27 2022
Total elapsed time: 2.753 seconds.

tnom = 27
temp = 27
method = modified trap
totiter = 329874
traniter = 329843
tranpoints = 138198
accept = 98667
rejected = 39531
matrix size = 82
fillins = 35
solver = Normal
Matrix Compiler1: 8.71 KB object code size  1.3/0.6/[0.5]
Matrix Compiler2: off  [0.4]/0.7/0.5

